/*--------------------------------*- C++ -*----------------------------------*\
| =========                 |
| \\      /  F ield         | OpenFOAM: The Open Source CFD Toolbox
|  \\    /   O peration     |
|   \\  /    A nd           |
|    \\/     M anipulation  |
\*---------------------------------------------------------------------------*/

FoamFile
{
    version     2.0;
    format      ascii;
    class       dictionary;
    object      blockMeshDict;
}



convertToMeters 1.0;

// Rin  = 0.04 m
// Rout = 0.06 m
// L    = 0.24 m  

vertices
(
    // инлет, внутренний радиус
    (0.0   0.04   0.0)    
    (0.0   0.0    0.04)   
    (0.0  -0.04   0.0)    
    (0.0   0.0   -0.04)   

    // инлет, внешний радиус
    (0.0   0.06   0.0)    
    (0.0   0.0    0.06)   
    (0.0  -0.06   0.0)   
    (0.0   0.0   -0.06)  

    // аутлет, внутренний радиус
    (0.24  0.04   0.0)    
    (0.24  0.0    0.04)   
    (0.24 -0.04   0.0)    
    (0.24  0.0   -0.04)   

    // аутлет, внешний радиус
    (0.24  0.06   0.0)    // 12 +y
    (0.24  0.0    0.06)   // 13 +z
    (0.24 -0.06   0.0)    // 14 -y
    (0.24  0.0   -0.06)   // 15 -z
);

blocks
(
   
    hex (4 5 1 0   12 13 9 8)
        (100 30 8)
        simpleGrading (1 1 1)
        
    hex (5 6 2 1   13 14 10 9)
        (100 30 8)
        simpleGrading (1 1 1)

    
    hex (6 7 3 2   14 15 11 10)
        (100 30 8)
        simpleGrading (1 1 1)

    
    hex (7 4 0 3   15 12 8 11)
        (100 30 8)
        simpleGrading (1 1 1)
);


edges
(
    
    arc 0 1  (0.0   0.0283   0.0283)
    arc 1 2  (0.0  -0.0283   0.0283)
    arc 2 3  (0.0  -0.0283  -0.0283)
    arc 3 0  (0.0   0.0283  -0.0283)

    
    arc 4 5  (0.0   0.0424   0.0424)
    arc 5 6  (0.0  -0.0424   0.0424)
    arc 6 7  (0.0  -0.0424  -0.0424)
    arc 7 4  (0.0   0.0424  -0.0424)

    
    arc 8 9   (0.24   0.0283   0.0283)
    arc 9 10  (0.24  -0.0283   0.0283)
    arc 10 11 (0.24  -0.0283  -0.0283)
    arc 11 8  (0.24   0.0283  -0.0283)

    
    arc 12 13 (0.24   0.0424   0.0424)
    arc 13 14 (0.24  -0.0424   0.0424)
    arc 14 15 (0.24  -0.0424  -0.0424)
    arc 15 12 (0.24   0.0424  -0.0424)
);

boundary
(
    inlet
    {
        type patch;
        faces
        (
            (0 1 5 4)
            (1 2 6 5)
            (2 3 7 6)
            (3 0 4 7)
        );
    }

    outlet
    {
        type patch;
        faces
        (
            (8 9 13 12)
            (9 10 14 13)
            (10 11 15 14)
            (11 8 12 15)
        );
    }

    innerWall
    {
        type wall;
        faces
        (
            (0 8 9 1)
            (1 9 10 2)
            (2 10 11 3)
            (3 11 8 0)
        );
    }

    outerWall
    {
        type wall;
        faces
        (
            (4 5 13 12)
            (5 6 14 13)
            (6 7 15 14)
            (7 4 12 15)
        );
    }
);

mergePatchPairs ();

