/*--------------------------------*- C++ -*----------------------------------*\
  =========                 |
  \\      /  F ield         | OpenFOAM: The Open Source CFD Toolbox
   \\    /   O peration     | Website:  https://openfoam.org
    \\  /    A nd           | Version:  13
     \\/     M anipulation  |
\*---------------------------------------------------------------------------*/
FoamFile
{
    format      ascii;
    class       dictionary;
    location    "system";
    object      fvSchemes;
}
// * * * * * * * * * * * * * * * * * * * * * * * * * * * * * * * * * * * * * //

ddtSchemes
{
    default         Euler;
}

gradSchemes
{
    default         Gauss linear;
}

divSchemes
{
    default         none;

    div(phi,U)      Gauss limitedLinearV 1;
    div(phi,K)      Gauss linear;
    div(phi,k)      Gauss limitedLinear 1;
    div(phi,h)      Gauss limitedLinear 1;
    div(phi,Yi_h)   Gauss multivariateSelection
    {
        O2              limitedLinear01 1;
        CH4             limitedLinear01 1;
        N2              limitedLinear01 1;
        H2O             limitedLinear01 1;
        CO2             limitedLinear01 1;
        h               limitedLinear 1;
    };
    div(((rho*nuEff)*dev2(T(grad(U))))) Gauss linear;
    div(Ji,Ii_h)    Gauss upwind;
}

laplacianSchemes
{
    default         Gauss linear orthogonal;
}

interpolationSchemes
{
    default         linear;
        reconstruct(rho) limitedLinear 1;
    reconstruct(U)  limitedLinearV 1;
    reconstruct(T)  limitedLinear 1;

    flux(rhoU)      linear;
}

snGradSchemes
{
    default         orthogonal;
}


// ************************************************************************* //
